UoNewCastle/spm_s/lines_lbs_spm_s_scaled.dss
!new line.3427343 phases=3 bus1=9297630 bus2=13407292 linecode=Cable_230V_185_AL_WAVEF length=0.525 units=m !enabled=False; link box
new line.10094517 phases=3 bus1=14544108 bus2=9299438 linecode=Cable_230V_0.1_AL length=10.1 units=m !enabled=True; link box
new line.10097375 phases=3 bus1=13754084 bus2=9299446 linecode=Cable_230V_0.1_AL length=0.543 units=m !enabled=True; link box
new line.10095168 phases=3 bus1=17743106 bus2=9299447 linecode=Cable_230V_95_AL length=0.216 units=m !enabled=True; link box
new line.9598714 phases=3 bus1=13379026 bus2=9306383 linecode=UNKNOWN_LV_Cable_M length=0.668 units=m !enabled=True; link box
new line.9586233 phases=3 bus1=12970472 bus2=9325811 linecode=Cable_230V_0.1_AL length=0.336 units=m !enabled=True; link box
new line.3470874 phases=3 bus1=13746730 bus2=9325812 linecode=UNKNOWN_LV_Cable_M length=0.745 units=m !enabled=True; link box
new line.9571884 phases=3 bus1=15248668 bus2=9325813 linecode=Cable_230V_0.2_AL length=5.04 units=m !enabled=True; link box
new line.2991569 phases=3 bus1=14019801 bus2=9325814 linecode=Cable_230V_0.1_AL length=2.14 units=m !enabled=True; link box
new line.5213147 phases=3 bus1=14404931 bus2=9325810 linecode=Cable_230V_95_AL length=2.83 units=m !enabled=True; link box
new line.5213146 phases=3 bus1=15868392 bus2=9325809 linecode=Cable_230V_95_AL length=0.357 units=m !enabled=True; link box
new line.3525465 phases=3 bus1=15464266 bus2=9325808 linecode=Cable_230V_95_AL length=0.432 units=m !enabled=True; link box
!new line.4789487 phases=3 bus1=17641788 bus2=9336563 linecode=Cable_230V_240_AL_CONSAC length=0.238 units=m !enabled=False; link box
new line.6777927 phases=3 bus1=14854625 bus2=9341295 linecode=UNKNOWN_LV_Cable_M length=0.455 units=m !enabled=True; link box
new line.4651782 phases=3 bus1=17892716 bus2=9354298 linecode=Cable_230V_240_AL_CONSAC length=0.238 units=m !enabled=True; link box
new line.3833739 phases=3 bus1=14459569 bus2=9354892 linecode=Cable_230V_0.1_AL length=0.1 units=m !enabled=True; link box
new line.10882324 phases=3 bus1=14605236 bus2=9354896 linecode=UNKNOWN_LV_Cable_M length=0.207 units=m !enabled=True; link box
new line.6971614 phases=3 bus1=14630835 bus2=9354907 linecode=UNKNOWN_LV_Cable_M length=0.49 units=m !enabled=True; link box
new line.7383872 phases=3 bus1=9354910 bus2=17892730 linecode=CONNECTOR length=0.0432 units=m !enabled=True; link box
new line.7383869 phases=3 bus1=9354911 bus2=17892734 linecode=CONNECTOR length=0.0432 units=m !enabled=True; link box
new line.9571920 phases=3 bus1=15646653 bus2=9406714 linecode=Cable_230V_95_AL length=9.18 units=m !enabled=True; link box
new line.3410818 phases=3 bus1=15895587 bus2=9406715 linecode=Cable_230V_95_AL length=0.187 units=m !enabled=True; link box
new line.6086607 phases=3 bus1=16042061 bus2=9413888 linecode=Cable_230V_185_AL_WAVEF length=0.216 units=m !enabled=True; link box
new line.4568731 phases=3 bus1=14610969 bus2=9355215 linecode=Cable_230V_0.1_AL length=6.99 units=m !enabled=True; link box
!new line.6862171 phases=3 bus1=17892746 bus2=9354287 linecode=Cable_230V_185_AL_WAVEF length=0.238 units=m !enabled=False; link box
new line.4671609 phases=3 bus1=17892747 bus2=9356651 linecode=Cable_230V_240_AL_CONSAC length=0.238 units=m !enabled=True; link box
new line.4671616 phases=3 bus1=17892747 bus2=9356650 linecode=Cable_230V_240_AL_CONSAC length=0.238 units=m !enabled=True; link box
!new line.4480491 phases=3 bus1=17892707 bus2=9354274 linecode=UNKNOWN_LV_Cable_M length=0.216 units=m !enabled=False; link box
!new line.6642408 phases=3 bus1=14534810 bus2=9376744 linecode=Cable_230V_95_AL length=0.382 units=m !enabled=False; link box !!!!
!new line.7010207 phases=3 bus1=17892747 bus2=9356653 linecode=Cable_230V_240_AL_CONSAC length=0.238 units=m !enabled=False; link box
!new line.4133758 phases=3 bus1=17892747 bus2=9356648 linecode=Cable_230V_240_AL_CONSAC length=0.238 units=m !enabled=False; link box
!new line.4583250 phases=3 bus1=17892746 bus2=9354276 linecode=Cable_230V_185_AL_WAVEF length=0.238 units=m !enabled=False; link box
!new line.4581577 phases=3 bus1=9327802 bus2=17892718 linecode=UNKNOWN_LV_Cable_M length=0.0579 units=m !enabled=False; link box
new line.5167018 phases=3 bus1=14361309 bus2=9341304 linecode=UNKNOWN_LV_Cable_M length=1.1 units=m !enabled=True; link box
new line.4849838 phases=3 bus1=17743099 bus2=9341302 linecode=Cable_230V_0.2_AL length=0.218 units=m !enabled=True; link box
!new line.4673055 phases=3 bus1=17892708 bus2=9356661 linecode=Cable_230V_240_AL_CONSAC length=0.238 units=m !enabled=False; link box
new line.4643594 phases=3 bus1=17892716 bus2=9354299 linecode=Cable_230V_240_AL_CONSAC length=0.238 units=m !enabled=True; link box
!new line.4671580 phases=3 bus1=17892716 bus2=9327804 linecode=Cable_230V_240_AL_CONSAC length=0.238 units=m !enabled=False; link box
new line.7383923 phases=3 bus1=9354909 bus2=17892735 linecode=CONNECTOR length=0.0432 units=m !enabled=True; link box
new line.7383823 phases=3 bus1=9354908 bus2=17892728 linecode=CONNECTOR length=0.0432 units=m !enabled=True; link box
new line.3478184 phases=3 bus1=14647552 bus2=9406716 linecode=Cable_230V_95_AL length=0.295 units=m !enabled=True; link box
new line.4568732 phases=3 bus1=14637756 bus2=9355219 linecode=UNKNOWN_LV_Cable_M length=0.0117 units=m !enabled=True; link box
new line.4789488 phases=3 bus1=17641788 bus2=9338140 linecode=Cable_230V_240_AL_CONSAC length=0.238 units=m !enabled=True; link box
new line.3332547 phases=3 bus1=17892746 bus2=9354288 linecode=Cable_230V_185_AL_WAVEF length=0.251 units=m !enabled=True; link box
new line.3363020 phases=3 bus1=13590210 bus2=9406717 linecode=Cable_230V_95_AL length=0.313 units=m !enabled=True; link box
new line.4789489 phases=3 bus1=17641788 bus2=9336565 linecode=Cable_230V_240_AL_CONSAC length=0.238 units=m !enabled=True; link box
new line.4643593 phases=3 bus1=17892716 bus2=9356638 linecode=Cable_230V_240_AL_CONSAC length=0.238 units=m !enabled=True; link box
new line.4788504 phases=3 bus1=17641788 bus2=9336566 linecode=Cable_230V_240_AL_CONSAC length=0.238 units=m !enabled=True; link box
new line.4677487 phases=3 bus1=17892708 bus2=9356663 linecode=Cable_230V_240_AL_CONSAC length=0.238 units=m !enabled=True; link box
new line.4677489 phases=3 bus1=17892708 bus2=9356660 linecode=Cable_230V_240_AL_CONSAC length=0.238 units=m !enabled=True; link box
new line.4583252 phases=3 bus1=17892746 bus2=9354295 linecode=Cable_230V_185_AL_WAVEF length=0.238 units=m !enabled=True; link box
!new line.4677488 phases=3 bus1=17892708 bus2=9356662 linecode=Cable_230V_240_AL_CONSAC length=0.238 units=m !enabled=False; link box
new line.4250239 phases=3 bus1=13379048 bus2=9306384 linecode=UNKNOWN_LV_Cable_M length=0.944 units=m !enabled=True; link box
new line.4640706 phases=3 bus1=17597332 bus2=9318330 linecode=UNKNOWN_LV_Cable_M length=0.324 units=m !enabled=True; link box
new line.11608030 phases=3 bus1=9125129 bus2=9603951 linecode=default length=0.108 units=m
new line.3023301 phases=3 bus1=12769293 bus2=14625048 linecode=Cable_230V_35_AL_ACT length=0.619 units=m
new line.3501488 phases=3 bus1=14633509 bus2=14633501 linecode=Cable_230V_95_AL length=0.523 units=m
new line.3501743 phases=3 bus1=12644365 bus2=13291457 linecode=Cable_230V_0.5_CU length=0.971 units=m
new line.3502492 phases=3 bus1=13297005 bus2=11552508 linecode=Cable_230V_25_CU length=1.08 units=m
new line.3642706 phases=3 bus1=10500837 bus2=12812672 linecode=Cable_230V_25_CU length=4.85 units=m
new line.4030545 phases=3 bus1=14630834 bus2=11615216 linecode=Cable_230V_25_CU length=2.21 units=m
new line.10882970 phases=3 bus1=14642543 bus2=12812672 linecode=Cable_230V_0.1_CU length=0.157 units=m
new line.4033620 phases=3 bus1=14642543 bus2=14610970 linecode=Cable_230V_25_CU length=0.297 units=m
new line.4133753 phases=3 bus1=9356638 bus2=14625008 linecode=Cable_230V_240_AL_CONSAC length=0.433 units=m
new line.4133950 phases=3 bus1=14642544 bus2=13512335 linecode=Cable_230V_25_CU length=0.429 units=m
new line.4477360 phases=3 bus1=12812632 bus2=10514764 linecode=Cable_230V_25_CU length=3.08 units=m
new line.4477398 phases=3 bus1=14610953 bus2=11425047 linecode=Cable_230V_25_CU length=1.85 units=m
new line.4477399 phases=3 bus1=11564679 bus2=11564678 linecode=Cable_230V_25_CU length=2.07 units=m
new line.4477405 phases=3 bus1=12812692 bus2=11477626 linecode=Cable_230V_25_CU length=3.64 units=m
new line.4483665 phases=3 bus1=14270019 bus2=14287569 linecode=Cable_230V_0.25_CU length=1.28 units=m
new line.4503039 phases=3 bus1=14459581 bus2=14459583 linecode=Cable_230V_4_CU length=0.154 units=m
new line.4503507 phases=3 bus1=14000736 bus2=9771769 linecode=Cable_230V_25_CU length=0.345 units=m
new line.4503504 phases=3 bus1=14459570 bus2=14459572 linecode=Cable_230V_95_AL length=0.651 units=m
new line.4504415 phases=3 bus1=14459584 bus2=9771775 linecode=Cable_230V_4_CU length=2.77 units=m
new line.4532048 phases=3 bus1=13259673 bus2=13297009 linecode=UNKNOWN_LV_Cable_M length=0.393 units=m
new line.4537617 phases=3 bus1=14634182 bus2=10500838 linecode=Cable_230V_95_AL length=1.83 units=m
new line.10877375 phases=3 bus1=13291462 bus2=14630834 linecode=Cable_230V_25_CU length=3.14 units=m
new line.4538385 phases=3 bus1=14013527 bus2=13291462 linecode=UNKNOWN_LV_Cable_M length=1.88 units=m
new line.4539454 phases=3 bus1=14269866 bus2=11566938 linecode=Cable_230V_25_CU length=3.45 units=m
new line.4568733 phases=3 bus1=9355219 bus2=17892709 linecode=UNKNOWN_LV_Cable_M length=0.223 units=m
new line.4579359 phases=3 bus1=14459628 bus2=14459629 linecode=Cable_230V_35_AL_ASCT length=0.513 units=m
new line.4649631 phases=3 bus1=12812696 bus2=12938233 linecode=Cable_230V_95_AL length=0.393 units=m
new line.4651794 phases=3 bus1=14610970 bus2=11571153 linecode=Cable_230V_25_CU length=1.67 units=m
new line.4651793 phases=3 bus1=14013502 bus2=17892720 linecode=Cable_230V_0.2_CU length=6.16 units=m
new line.4658368 phases=3 bus1=12812675 bus2=12812696 linecode=Cable_230V_95_AL length=9.14 units=m
new line.4664831 phases=3 bus1=14637753 bus2=11570312 linecode=Cable_230V_25_AL length=5.56 units=m
new line.4664830 phases=3 bus1=12606950 bus2=11566939 linecode=Cable_230V_0.06_CU length=0.458 units=m
new line.4669013 phases=3 bus1=14611025 bus2=14024509 linecode=Cable_230V_0.1_CU length=3.22 units=m
new line.4669790 phases=3 bus1=14610942 bus2=17892706 linecode=UNKNOWN_LV_Cable_M length=0.726 units=m
new line.4671007 phases=3 bus1=12601493 bus2=11540372 linecode=Cable_230V_25_CU length=0.876 units=m
new line.4671024 phases=3 bus1=12753331 bus2=11555425 linecode=Cable_230V_25_CU length=1.08 units=m
new line.4671644 phases=3 bus1=14625040 bus2=14625036 linecode=Cable_230V_4_CU length=0.226 units=m
new line.4673172 phases=3 bus1=13295429 bus2=10503449 linecode=Cable_230V_25_CU length=1.17 units=m
new line.4673058 phases=3 bus1=14633501 bus2=14027174 linecode=Cable_230V_0.1_CU length=0.95 units=m
new line.4673178 phases=3 bus1=14027174 bus2=12753341 linecode=Cable_230V_95_AL length=2.34 units=m
new line.4673177 phases=3 bus1=12938237 bus2=10498390 linecode=Cable_230V_25_CU length=1.27 units=m
new line.4673727 phases=3 bus1=12664167 bus2=11570329 linecode=Cable_230V_25_CU length=1.78 units=m
new line.4673726 phases=3 bus1=13291498 bus2=10569455 linecode=Cable_230V_35_AL_ACT length=4.14 units=m
new line.4675231 phases=3 bus1=13291498 bus2=13296805 linecode=UNKNOWN_LV_Cable_M length=0.544 units=m
new line.4675953 phases=3 bus1=14395908 bus2=11569985 linecode=Cable_230V_25_CU length=1.35 units=m
new line.4682346 phases=3 bus1=14024507 bus2=11569984 linecode=Cable_230V_25_CU length=3.48 units=m
new line.4687838 phases=3 bus1=11555408 bus2=12925305 linecode=Cable_230V_25_CU length=1.27 units=m
new line.4699344 phases=3 bus1=14554103 bus2=12601559 linecode=Cable_230V_0.3_CU length=3.53 units=m
new line.4757554 phases=3 bus1=11571575 bus2=11567821 linecode=Cable_230V_25_CU length=1.69 units=m
new line.4773874 phases=3 bus1=14605198 bus2=11570438 linecode=Cable_230V_25_CU length=2.16 units=m
new line.4773872 phases=3 bus1=13259727 bus2=12586974 linecode=Cable_230V_25_CU length=0.168 units=m
new line.4773873 phases=3 bus1=14407528 bus2=11615214 linecode=Cable_230V_25_CU length=1.52 units=m
new line.4778239 phases=3 bus1=13259676 bus2=11546727 linecode=Cable_230V_25_CU length=3.28 units=m
new line.4782673 phases=3 bus1=12753248 bus2=10509034 linecode=Cable_230V_25_CU length=2.04 units=m
new line.6604190 phases=3 bus1=14000755 bus2=10558956 linecode=Cable_230V_25_CU length=2.37 units=m
new line.6604433 phases=3 bus1=10509032 bus2=11615211 linecode=Cable_230V_25_CU length=2.24 units=m
new line.10877515 phases=3 bus1=13297005 bus2=14608955 linecode=Cable_230V_0.2_CU length=1.85 units=m
new line.6605459 phases=3 bus1=14608955 bus2=14612751 linecode=Cable_230V_25_CU length=0.282 units=m
new line.6864126 phases=3 bus1=13291458 bus2=11615215 linecode=Cable_230V_25_CU length=1.72 units=m
new line.10883671 phases=3 bus1=14607834 bus2=14625008 linecode=Cable_230V_0.1_CU length=2.8 units=m
new line.6936478 phases=3 bus1=14607834 bus2=11567822 linecode=Cable_230V_25_CU length=2.19 units=m
new line.7010002 phases=3 bus1=11571554 bus2=14637754 linecode=Cable_230V_25_AL length=3.84 units=m
new line.7010994 phases=3 bus1=14607709 bus2=17892715 linecode=Cable_230V_0.2_CU length=1.66 units=m
new line.7383845 phases=3 bus1=17892706 bus2=17892705 linecode=CONNECTOR length=0.238 units=m
new line.7383772 phases=3 bus1=9541875 bus2=17892705 linecode=CONNECTOR length=0.0432 units=m
new line.7383835 phases=3 bus1=9354910 bus2=17892731 linecode=CONNECTOR length=0.0432 units=m
new line.7383878 phases=3 bus1=17892725 bus2=17892727 linecode=CONNECTOR length=0.0587 units=m
new line.7383908 phases=3 bus1=17892740 bus2=17893803 linecode=CONNECTOR length=0.0432 units=m
new line.7383915 phases=3 bus1=17892738 bus2=17892739 linecode=CONNECTOR length=0.0432 units=m
new line.10876866 phases=3 bus1=14607809 bus2=13259725 linecode=Cable_230V_95_AL length=3.94 units=m
new line.10877276 phases=3 bus1=12753287 bus2=12753763 linecode=Cable_230V_0.1_CU length=0.303 units=m
new line.10877490 phases=3 bus1=12644365 bus2=12830794 linecode=Cable_230V_0.25_CU length=1.26 units=m
new line.10883771 phases=3 bus1=13291500 bus2=14607709 linecode=Cable_230V_0.2_CU length=7.7 units=m
new line.10877526 phases=3 bus1=12812677 bus2=13291500 linecode=Cable_230V_0.2_CU length=0.876 units=m
new line.10881393 phases=3 bus1=14024676 bus2=14605198 linecode=Cable_230V_0.2_CU length=1.4 units=m
new line.10877102 phases=3 bus1=12812677 bus2=14024676 linecode=Cable_230V_0.2_CU length=1.3 units=m
new line.10894938 phases=3 bus1=14000755 bus2=12726818 linecode=Cable_230V_95_AL length=1.68 units=m
new line.10882334 phases=3 bus1=12726818 bus2=12812697 linecode=Cable_230V_95_AL length=0.906 units=m
new line.10883249 phases=3 bus1=12664104 bus2=12812632 linecode=Cable_230V_185_AL_WAVE length=0.198 units=m
new line.10883627 phases=3 bus1=12644259 bus2=14610942 linecode=Cable_230V_0.2_CU length=6.34 units=m
new line.10883647 phases=3 bus1=14554104 bus2=14633509 linecode=Cable_230V_0.1_CU length=1.84 units=m
new line.10892356 phases=3 bus1=13295429 bus2=14554104 linecode=Cable_230V_0.1_CU length=0.792 units=m
new line.10877518 phases=3 bus1=13296805 bus2=14554123 linecode=UNKNOWN_LV_Cable_M length=1.55 units=m
new line.10883677 phases=3 bus1=14554123 bus2=14013469 linecode=UNKNOWN_LV_Cable_M length=0.521 units=m
new line.10886400 phases=3 bus1=13291458 bus2=12812718 linecode=Cable_230V_0.25_CU length=0.432 units=m
new line.10883805 phases=3 bus1=12812718 bus2=12664112 linecode=Cable_230V_0.25_CU length=0.6 units=m
new line.10886193 phases=3 bus1=14608955 bus2=14612753 linecode=Cable_230V_0.2_CU length=1.02 units=m
new line.10887312 phases=3 bus1=12753191 bus2=12830791 linecode=UNKNOWN_LV_Cable_M length=0.93 units=m
new line.10895600 phases=3 bus1=17892739 bus2=17892737 linecode=CONNECTOR length=0.0216 units=m
new line.10892447 phases=3 bus1=12753248 bus2=14013558 linecode=Cable_230V_185_AL_WAVE length=0.279 units=m
new line.10895071 phases=3 bus1=14027216 bus2=12812692 linecode=Cable_230V_95_AL length=5.86 units=m
new line.10883797 phases=3 bus1=13259676 bus2=14027216 linecode=Cable_230V_95_AL length=0.29 units=m
new line.10903326 phases=3 bus1=12753245 bus2=14407503 linecode=Cable_230V_95_AL length=1.7 units=m
new line.11608031 phases=3 bus1=9125129 bus2=9603954 linecode=default length=0.089 units=m
new line.10880478 phases=3 bus1=12830688 bus2=14554103 linecode=Cable_230V_0.3_CU length=1.1 units=m
new line.2603174 phases=3 bus1=12830688 bus2=11574580 linecode=Cable_230V_25_CU length=3.0 units=m
new line.10883464 phases=3 bus1=13259725 bus2=14024483 linecode=Cable_230V_95_AL length=0.583 units=m
new line.2872261 phases=3 bus1=14024483 bus2=11567823 linecode=Cable_230V_25_CU length=2.2 units=m
new line.4612770 phases=3 bus1=12594961 bus2=12769293 linecode=Cable_230V_95_AL length=1.52 units=m
new line.2873967 phases=3 bus1=14027176 bus2=12594961 linecode=Cable_230V_95_AL length=1.97 units=m
new line.3019532 phases=3 bus1=14027176 bus2=12664182 linecode=Cable_230V_95_AL length=4.32 units=m
new line.4600003 phases=3 bus1=14270031 bus2=12664182 linecode=Cable_230V_0.1_CU length=0.51 units=m
new line.3019531 phases=3 bus1=14013508 bus2=14270031 linecode=Cable_230V_0.1_CU length=2.11 units=m
new line.4682345 phases=3 bus1=14000793 bus2=14024507 linecode=UNKNOWN_LV_Cable_M length=0.875 units=m
new line.3019520 phases=3 bus1=14000793 bus2=13296811 linecode=Cable_230V_0.1_CU length=0.339 units=m
new line.3021964 phases=3 bus1=12812673 bus2=10507414 linecode=Cable_230V_25_CU length=2.92 units=m
new line.10877101 phases=3 bus1=12812675 bus2=14550977 linecode=Cable_230V_95_AL length=1.05 units=m
new line.10881360 phases=3 bus1=14550977 bus2=17892725 linecode=Cable_230V_95_AL length=10.3 units=m
new line.3162948 phases=3 bus1=14550977 bus2=10498301 linecode=Cable_230V_25_CU length=2.58 units=m
new line.3162979 phases=3 bus1=14000831 bus2=14637771 linecode=Cable_230V_0.1_CU length=4.3 units=m
new line.10881070 phases=3 bus1=12812673 bus2=14639307 linecode=UNKNOWN_LV_Cable_M length=0.129 units=m
new line.3336168 phases=3 bus1=14639307 bus2=13616586 linecode=Cable_230V_185_AL_WAVE length=0.513 units=m
new line.3643593 phases=3 bus1=12606953 bus2=12753362 linecode=UNKNOWN_LV_Cable_M length=0.733 units=m
new line.3646849 phases=3 bus1=10473649 bus2=13291454 linecode=Cable_230V_25_CU length=1.25 units=m
new line.3646247 phases=3 bus1=12812602 bus2=17892726 linecode=Cable_230V_185_AL_WAVE length=23.2 units=m
new line.10877328 phases=3 bus1=14459570 bus2=12830789 linecode=Cable_230V_0.1_CU length=0.17 units=m
new line.3833163 phases=3 bus1=12830789 bus2=10558982 linecode=Cable_230V_25_CU length=0.834 units=m
new line.3838795 phases=3 bus1=14459598 bus2=10558983 linecode=Cable_230V_0.0225_CU length=1.72 units=m
new line.2875518 phases=3 bus1=14013502 bus2=14013555 linecode=UNKNOWN_LV_Cable_M length=0.411 units=m
new line.3829344 phases=3 bus1=14013555 bus2=12812602 linecode=UNKNOWN_LV_Cable_M length=2.14 units=m
new line.3838210 phases=3 bus1=11567872 bus2=14367548 linecode=Cable_230V_25_AL length=1.62 units=m
new line.3837769 phases=3 bus1=11566940 bus2=14637753 linecode=Cable_230V_25_AL length=5.85 units=m
new line.3838151 phases=3 bus1=12601527 bus2=11555407 linecode=Cable_230V_25_CU length=1.29 units=m
new line.6972517 phases=3 bus1=14459628 bus2=14510263 linecode=Cable_230V_35_AL_ASCT length=0.521 units=m
new line.3930346 phases=3 bus1=14510263 bus2=10496118 linecode=Cable_230V_35_AL_ASCT length=1.67 units=m
new line.4029443 phases=3 bus1=14395827 bus2=10503463 linecode=Cable_230V_25_AL length=2.78 units=m
new line.4030535 phases=3 bus1=12587092 bus2=14287622 linecode=UNKNOWN_LV_Cable_M length=0.167 units=m
new line.4029612 phases=3 bus1=14554105 bus2=14459578 linecode=Cable_230V_0.1_CU length=2.92 units=m
new line.10883043 phases=3 bus1=13296948 bus2=14459572 linecode=Cable_230V_0.1_CU length=4.36 units=m
new line.4128970 phases=3 bus1=13296948 bus2=11564679 linecode=Cable_230V_25_CU length=2.6 units=m
new line.10877400 phases=3 bus1=14287569 bus2=14604898 linecode=Cable_230V_0.25_CU length=0.441 units=m
new line.4133770 phases=3 bus1=14604898 bus2=10569444 linecode=Cable_230V_25_CU length=1.72 units=m
new line.10883411 phases=3 bus1=14024510 bus2=14000755 linecode=Cable_230V_95_AL length=1.17 units=m
new line.4536805 phases=3 bus1=14024510 bus2=10498371 linecode=Cable_230V_25_CU length=2.12 units=m
new line.4539493 phases=3 bus1=12830414 bus2=10567013 linecode=Cable_230V_25_CU length=2.23 units=m
new line.10877429 phases=3 bus1=12938233 bus2=14554124 linecode=Cable_230V_95_AL length=12.9 units=m
new line.4476875 phases=3 bus1=14554124 bus2=10496129 linecode=Cable_230V_25_CU length=1.24 units=m
new line.4476870 phases=3 bus1=12753245 bus2=11574579 linecode=Cable_230V_25_CU length=2.31 units=m
new line.4480490 phases=3 bus1=14024507 bus2=17892707 linecode=UNKNOWN_LV_Cable_M length=1.69 units=m
new line.4476872 phases=3 bus1=11477626 bus2=11567866 linecode=Cable_230V_25_CU length=1.68 units=m
new line.10891515 phases=3 bus1=12812632 bus2=14000790 linecode=Cable_230V_185_AL_WAVE length=0.127 units=m
new line.4477358 phases=3 bus1=14000790 bus2=10509097 linecode=Cable_230V_25_CU length=2.11 units=m
new line.4476876 phases=3 bus1=13297050 bus2=11570433 linecode=Cable_230V_25_CU length=0.919 units=m
new line.10883259 phases=3 bus1=12812692 bus2=14000737 linecode=Cable_230V_95_AL length=2.4 units=m
new line.4477356 phases=3 bus1=9771444 bus2=14000737 linecode=Cable_230V_25_CU length=0.445 units=m
new line.10891513 phases=3 bus1=14637774 bus2=14610953 linecode=Cable_230V_95_AL length=1.78 units=m
new line.10883236 phases=3 bus1=14554124 bus2=14637774 linecode=Cable_230V_95_AL length=0.986 units=m
new line.4476871 phases=3 bus1=14637774 bus2=10567067 linecode=Cable_230V_25_CU length=1.28 units=m
new line.4480492 phases=3 bus1=14625023 bus2=17892729 linecode=Cable_230V_0.3_AL length=14.9 units=m
new line.10891586 phases=3 bus1=12812697 bus2=14551053 linecode=Cable_230V_95_AL length=1.51 units=m
new line.4477359 phases=3 bus1=14551053 bus2=11553593 linecode=Cable_230V_25_CU length=2.11 units=m
new line.10903334 phases=3 bus1=14000790 bus2=14367551 linecode=Cable_230V_185_AL_WAVE length=0.913 units=m
new line.4476877 phases=3 bus1=14367551 bus2=10518016 linecode=Cable_230V_25_CU length=2.04 units=m
new line.4477357 phases=3 bus1=14000737 bus2=11570447 linecode=Cable_230V_25_CU length=3.54 units=m
new line.4483297 phases=3 bus1=9354892 bus2=17892717 linecode=Cable_230V_0.1_AL length=0.216 units=m
new line.4481932 phases=3 bus1=12938250 bus2=13291457 linecode=Cable_230V_0.1_CU length=3.53 units=m
new line.4492840 phases=3 bus1=14287599 bus2=11567801 linecode=Cable_230V_25_AL length=1.95 units=m
new line.4496014 phases=3 bus1=14395827 bus2=10554712 linecode=Cable_230V_25_AL length=3.08 units=m
new line.4492839 phases=3 bus1=14287599 bus2=11570321 linecode=Cable_230V_25_AL length=1.92 units=m
new line.4480489 phases=3 bus1=17892718 bus2=17892717 linecode=UNKNOWN_LV_Cable_M length=0.218 units=m
new line.4503496 phases=3 bus1=14395871 bus2=14395873 linecode=Cable_230V_0.0125_CU length=0.203 units=m
new line.4504424 phases=3 bus1=14027213 bus2=11552511 linecode=Cable_230V_25_CU length=1.87 units=m
new line.4503498 phases=3 bus1=14454406 bus2=14454404 linecode=Cable_230V_25_AL length=0.358 units=m
new line.10891411 phases=3 bus1=14395827 bus2=12753246 linecode=Cable_230V_0.1_CU length=3.5 units=m
new line.4504481 phases=3 bus1=12753246 bus2=13297006 linecode=UNKNOWN_LV_Cable_M length=1.58 units=m
new line.10882609 phases=3 bus1=12830789 bus2=14395870 linecode=Cable_230V_0.1_CU length=0.203 units=m
new line.10891530 phases=3 bus1=14395870 bus2=14395827 linecode=Cable_230V_0.1_CU length=3.1 units=m
new line.4503495 phases=3 bus1=10558978 bus2=14395870 linecode=Cable_230V_25_AL length=4.39 units=m
new line.4503637 phases=3 bus1=12812609 bus2=12812602 linecode=Cable_230V_185_AL_WAVE length=5.26 units=m
new line.4504418 phases=3 bus1=12753716 bus2=12812609 linecode=UNKNOWN_LV_Cable_M length=0.505 units=m
new line.10883563 phases=3 bus1=14637754 bus2=12753333 linecode=Cable_230V_95_AL length=0.8 units=m
new line.4504482 phases=3 bus1=12753333 bus2=11477630 linecode=Cable_230V_25_CU length=2.35 units=m
new line.4504423 phases=3 bus1=12753290 bus2=10500840 linecode=Cable_230V_25_CU length=3.86 units=m
new line.4504487 phases=3 bus1=12753763 bus2=9771438 linecode=Cable_230V_25_CU length=0.166 units=m
new line.10883332 phases=3 bus1=12753333 bus2=13296949 linecode=Cable_230V_95_AL length=0.932 units=m
new line.4504492 phases=3 bus1=13296949 bus2=11566936 linecode=Cable_230V_25_CU length=2.54 units=m
new line.4504416 phases=3 bus1=10503453 bus2=10507415 linecode=Cable_230V_25_CU length=1.78 units=m
new line.4503497 phases=3 bus1=14395873 bus2=9771529 linecode=Cable_230V_4_CU length=0.862 units=m
new line.4503625 phases=3 bus1=12812635 bus2=11566943 linecode=Cable_230V_25_CU length=1.85 units=m
new line.10903935 phases=3 bus1=14024515 bus2=12753191 linecode=Cable_230V_0.06_CU length=0.666 units=m
new line.4529002 phases=3 bus1=14024515 bus2=10509055 linecode=Cable_230V_25_CU length=0.901 units=m
new line.4538384 phases=3 bus1=12587092 bus2=14606545 linecode=Cable_230V_0.1_CU length=1.2 units=m
new line.4533131 phases=3 bus1=14606545 bus2=14287624 linecode=Cable_230V_0.0225_CU length=0.224 units=m
new line.4529004 phases=3 bus1=12812636 bus2=10496131 linecode=Cable_230V_25_CU length=0.847 units=m
new line.4529005 phases=3 bus1=12812697 bus2=10509072 linecode=Cable_230V_25_CU length=1.65 units=m
new line.4532067 phases=3 bus1=12925266 bus2=10569430 linecode=Cable_230V_25_CU length=3.12 units=m
new line.4532046 phases=3 bus1=10509079 bus2=13297009 linecode=UNKNOWN_LV_Cable_M length=1.9 units=m
new line.4532066 phases=3 bus1=14024512 bus2=10504411 linecode=Cable_230V_25_CU length=2.56 units=m
new line.4532065 phases=3 bus1=14550998 bus2=14459628 linecode=Cable_230V_0.1_CU length=2.24 units=m
new line.4536806 phases=3 bus1=13259673 bus2=12812638 linecode=Cable_230V_0.1_CU length=1.97 units=m
new line.4670965 phases=3 bus1=12812638 bus2=14611025 linecode=Cable_230V_25_CU length=0.206 units=m
new line.10883375 phases=3 bus1=12812636 bus2=13297002 linecode=UNKNOWN_LV_Cable_M length=0.403 units=m
new line.4529033 phases=3 bus1=10496113 bus2=13297002 linecode=Cable_230V_35_AL_ACT length=0.756 units=m
new line.4536807 phases=3 bus1=12812638 bus2=12812634 linecode=Cable_230V_25_CU length=0.272 units=m
new line.10883421 phases=3 bus1=14607401 bus2=12753362 linecode=UNKNOWN_LV_Cable_M length=1.7 units=m
new line.4537640 phases=3 bus1=14607401 bus2=11570446 linecode=Cable_230V_25_CU length=1.73 units=m
new line.10877465 phases=3 bus1=13291462 bus2=12925307 linecode=Cable_230V_25_CU length=0.135 units=m
...